/*--------------------------------*- C++ -*----------------------------------*\
| =========                 |                                                 |
| \\      /  F ield         | OpenFOAM: The Open Source CFD Toolbox           |
|  \\    /   O peration     | Version:  5                                     |
|   \\  /    A nd           | Web:      www.OpenFOAM.org                      |
|    \\/     M anipulation  |                                                 |
\*---------------------------------------------------------------------------*/
FoamFile
{
    version     2.0;
    format      ascii;
    class       volScalarField;
    object      x;
}
// * * * * * * * * * * * * * * * * * * * * * * * * * * * * * * * * * * * * * //

dimensions      [0 0 0 0 0 0 0];

internalField   uniform 1;

boundaryField
{
    left
    {
        type            fixedValue;
        value           uniform 0;        
    }
    none
    {
        type            fixedValue;
        value           uniform 0; 
    }
    force
    {
        type            fixedValue;
        value           uniform 0;          
    }
    frontAndBack
    {
        type            empty;
    }
}

// ************************************************************************* //
