/*--------------------------------*- C++ -*----------------------------------*\
| =========                 |                                                 |
| \\      /  F ield         | OpenFOAM: The Open Source CFD Toolbox           |
|  \\    /   O peration     | Version:  5.x                                   |
|   \\  /    A nd           | Web:      www.OpenFOAM.org                      |
|    \\/     M anipulation  |                                                 |
\*---------------------------------------------------------------------------*/
FoamFile
{
    version     2.0;
    format      ascii;
    class       dictionary;
    location    "constant";
    object      dynamicMeshDict;
}
// * * * * * * * * * * * * * * * * * * * * * * * * * * * * * * * * * * * * * //

dynamicFvMesh   dynamicRefineFvMesh2D;

// How often to refine
refineInterval  1;

// Field to be refinement on
field           x;

// Refine field in between lower..upper
lowerRefineLevel -0.1;
upperRefineLevel 0.1;

// If value < unrefineLevel unrefine
unrefineLevel   1;

// Have slower than 2:1 refinement
nBufferLayers   1;

nBufferLayersR   1;

// Refine cells only up to maxRefinement levels
maxRefinement   2;

// Stop refinement if maxCells reached
maxCells        50000;

// Flux field and corresponding velocity field. Fluxes on changed
// faces get recalculated by interpolating the velocity. Use 'none'
// on surfaceScalarFields that do not need to be reinterpolated.
correctFluxes
(
    (phi none)
    (phib none)
    (phic none)
);

// Write the refinement level as a volScalarField
dumpLevel       true;


// ************************************************************************* //
