/*--------------------------------*- C++ -*----------------------------------*\
| =========                 |                                                 |
| \\      /  F ield         | OpenFOAM: The Open Source CFD Toolbox           |
|  \\    /   O peration     | Version:  5                                     |
|   \\  /    A nd           | Web:      www.OpenFOAM.org                      |
|    \\/     M anipulation  |                                                 |
\*---------------------------------------------------------------------------*/
FoamFile
{
    version     2.0;
    format      ascii;
    class       dictionary;
    location    "constant";
    object      mechanicalProperties;
}
// * * * * * * * * * * * * * * * * * * * * * * * * * * * * * * * * * * * * * //
raa0                raa0 [0 0 0 0 0 0 0] 0.00005;
asyinit             asyinit [0 0 0 0 0 0 0] 0.3;
filter_R            filter_R [0 0 0 0 0 0 0] 2;
non_design          non_design  [0 0 0 0 0 0 0] 0;
Heaviside_filter  Heaviside_filter  [0 0 0 0 0 0 0] 0;
rho
{
    type        uniform;
    value       1;
}

nu
{
    type        uniform;
    value       0.3;
}

E
{
    type        uniform;
    value        2e+11;
}

planeStress     yes;


// ************************************************************************* //
